# Packages
 &PACKAGES
 useOBCS=.FALSE.,
 useKL10=.TRUE.,
 useKPP=.FALSE.,
 useDIAGNOSTICS=.TRUE.,
 useMNC=.FALSE.,
 useNF90IO=.TRUE.,
 useRBCS=.FALSE.,
 /
